Version 4
SHEET 1 880 680
WIRE -464 96 -672 96
WIRE -432 96 -464 96
WIRE -288 96 -368 96
WIRE -224 96 -288 96
WIRE -112 96 -160 96
WIRE 64 96 -112 96
WIRE 448 96 320 96
WIRE 576 96 448 96
WIRE -672 128 -672 96
WIRE 448 128 448 96
WIRE -288 144 -288 96
WIRE -112 144 -112 96
WIRE -672 256 -672 208
WIRE -288 256 -288 208
WIRE -288 256 -672 256
WIRE -112 256 -112 208
WIRE -112 256 -288 256
WIRE -16 256 -112 256
WIRE 192 256 192 192
WIRE 192 256 -16 256
WIRE 448 256 448 192
WIRE 448 256 192 256
WIRE 608 256 448 256
WIRE 608 304 608 256
WIRE -288 320 -288 256
WIRE -112 320 -112 256
WIRE 448 336 448 256
WIRE -464 432 -464 96
WIRE -432 432 -464 432
WIRE -288 432 -288 384
WIRE -288 432 -368 432
WIRE -224 432 -288 432
WIRE -112 432 -112 384
WIRE -112 432 -160 432
WIRE 64 432 -112 432
WIRE 448 432 448 400
WIRE 448 432 320 432
WIRE 576 432 448 432
WIRE -16 592 -16 256
WIRE 192 592 192 528
WIRE 192 592 -16 592
FLAG 576 96 +5V
IOPIN 576 96 Out
FLAG 576 432 -5V
IOPIN 576 432 Out
FLAG 608 304 0
SYMBOL Regulators\\7805 192 96 R0
SYMATTR InstName U1
SYMBOL Regulators\\7905 192 432 R0
SYMATTR InstName U2
SYMBOL voltage -672 112 R0
WINDOW 123 0 0 Left 0
WINDOW 39 0 0 Left 0
SYMATTR InstName V1
SYMATTR Value SINE(0 12 50)
SYMBOL diode -224 112 R270
WINDOW 0 32 32 VTop 2
WINDOW 3 0 32 VBottom 2
SYMATTR InstName D1
SYMBOL diode -160 416 R90
WINDOW 0 0 32 VBottom 2
WINDOW 3 32 32 VTop 2
SYMATTR InstName D2
SYMBOL diode -272 208 R180
WINDOW 0 24 64 Left 2
WINDOW 3 24 0 Left 2
SYMATTR InstName D3
SYMBOL diode -272 384 R180
WINDOW 0 24 64 Left 2
WINDOW 3 24 0 Left 2
SYMATTR InstName D4
SYMBOL polcap -128 144 R0
SYMATTR InstName C1
SYMATTR Value 1000µ
SYMATTR Description Capacitor
SYMATTR Type cap
SYMATTR SpiceLine V=16 Irms=869m Rser=0.077 Lser=7.45266n mfg="Würth Elektronik" pn="860010375017 WCAP-ATG8 10x16" type="Al electrolytic"
SYMBOL polcap -128 320 R0
SYMATTR InstName C2
SYMATTR Value 1000µ
SYMATTR Description Capacitor
SYMATTR Type cap
SYMATTR SpiceLine V=16 Irms=869m Rser=0.077 Lser=7.45266n mfg="Würth Elektronik" pn="860010375017 WCAP-ATG8 10x16" type="Al electrolytic"
SYMBOL polcap -368 80 R90
WINDOW 0 0 32 VBottom 2
WINDOW 3 32 32 VTop 2
SYMATTR InstName C3
SYMATTR Value 1000µ
SYMATTR Description Capacitor
SYMATTR Type cap
SYMATTR SpiceLine V=16 Irms=869m Rser=0.077 Lser=7.45266n mfg="Würth Elektronik" pn="860010375017 WCAP-ATG8 10x16" type="Al electrolytic"
SYMBOL polcap -432 448 R270
WINDOW 0 32 32 VTop 2
WINDOW 3 0 32 VBottom 2
SYMATTR InstName C4
SYMATTR Value 1000µ
SYMATTR Description Capacitor
SYMATTR Type cap
SYMATTR SpiceLine V=16 Irms=869m Rser=0.077 Lser=7.45266n mfg="Würth Elektronik" pn="860010375017 WCAP-ATG8 10x16" type="Al electrolytic"
SYMBOL polcap 432 128 R0
WINDOW 3 24 56 Left 2
SYMATTR InstName C5
SYMATTR Value 22µ
SYMATTR Description Capacitor
SYMATTR Type cap
SYMATTR SpiceLine V=16 Irms=30m Rser=1.63828 Lser=1.77818n mfg="Würth Elektronik" pn="865230342002 WCAP-AS5H 5x5,5" type="Al electrolytic"
SYMBOL polcap 432 336 R0
WINDOW 3 24 56 Left 2
SYMATTR InstName C6
SYMATTR Value 22µ
SYMATTR Description Capacitor
SYMATTR Type cap
SYMATTR SpiceLine V=16 Irms=30m Rser=1.63828 Lser=1.77818n mfg="Würth Elektronik" pn="865230342002 WCAP-AS5H 5x5,5" type="Al electrolytic"
TEXT -456 552 Left 2 !.tran 100ms
